<?xml version="1.0" encoding="UTF-8"?>

<!-- generated on 2024-10-01 18:00:02 by Eclipse SUMO netedit Version 1.20.0
<configuration xmlns:xsi="http://www.w3.org/2001/XMLSchema-instance" xsi:noNamespaceSchemaLocation="http://sumo.dlr.de/xsd/neteditConfiguration.xsd">

    <input>
        <sumocfg-file value="D:\mproject\1\sumo-rl-main\sumo-rl-main\sumo_rl\nets\3x3grid_ambulance_on\3x3grid.sumocfg"/>
        <additional-files value=""/>
        <route-files value="D:\mproject\1\sumo-rl-main\sumo-rl-main\sumo_rl\nets\3x3grid_ambulance_on\routes14000.rou.xml"/>
        <sumo-net-file value="D:\mproject\1\sumo-rl-main\sumo-rl-main\sumo_rl\nets\3x3grid_ambulance_on\3x3Grid2lanes.net.xml"/>
    </input>

    <output>
        <output-file value="D:\mproject\1\sumo-rl-main\sumo-rl-main\sumo_rl\nets\3x3grid_ambulance_on\3x3Grid2lanes.net.xml"/>
    </output>

    <processing>
        <geometry.min-radius.fix.railways value="false"/>
        <geometry.max-grade.fix value="false"/>
        <offset.disable-normalization value="true"/>
        <lefthand value="0"/>
    </processing>

    <junctions>
        <no-turnarounds value="true"/>
        <junctions.corner-detail value="0"/>
        <junctions.limit-turn-speed value="-1.00"/>
        <rectangular-lane-cut value="0"/>
    </junctions>

    <pedestrian>
        <walkingareas value="0"/>
    </pedestrian>

    <netedit>
        <ignore.routeelements value="false"/>
    </netedit>

</configuration>
-->

<net version="1.20" xmlns:xsi="http://www.w3.org/2001/XMLSchema-instance" xsi:noNamespaceSchemaLocation="http://sumo.dlr.de/xsd/net_file.xsd">

    <location netOffset="250.00,550.00" convBoundary="0.00,0.00,800.00,800.00" origBoundary="-250.00,-550.00,550.00,250.00" projParameter="!"/>

    <edge id=":0_0" function="internal">
        <lane id=":0_0_0" index="0" speed="13.89" length="9.03" shape="242.00,563.60 241.65,561.15 240.60,559.40 238.85,558.35 236.40,558.00"/>
    </edge>
    <edge id=":0_1" function="internal">
        <lane id=":0_1_0" index="0" speed="13.89" length="27.20" shape="242.00,563.60 242.00,536.40"/>
        <lane id=":0_1_1" index="1" speed="13.89" length="27.20" shape="245.20,563.60 245.20,536.40"/>
        <lane id=":0_1_2" index="2" speed="13.89" length="27.20" shape="248.40,563.60 248.40,536.40"/>
    </edge>
    <edge id=":0_4" function="internal">
        <lane id=":0_4_0" index="0" speed="13.89" length="24.51" shape="248.40,563.60 249.35,556.95 252.20,552.20 256.95,549.35 263.60,548.40"/>
    </edge>
    <edge id=":0_5" function="internal">
        <lane id=":0_5_0" index="0" speed="13.89" length="9.03" shape="263.60,558.00 261.15,558.35 259.40,559.40 258.35,561.15 258.00,563.60"/>
    </edge>
    <edge id=":0_6" function="internal">
        <lane id=":0_6_0" index="0" speed="13.89" length="27.20" shape="263.60,558.00 236.40,558.00"/>
        <lane id=":0_6_1" index="1" speed="13.89" length="27.20" shape="263.60,554.80 236.40,554.80"/>
        <lane id=":0_6_2" index="2" speed="13.89" length="27.20" shape="263.60,551.60 236.40,551.60"/>
    </edge>
    <edge id=":0_9" function="internal">
        <lane id=":0_9_0" index="0" speed="13.89" length="24.51" shape="263.60,551.60 256.95,550.65 252.20,547.80 249.35,543.05 248.40,536.40"/>
    </edge>
    <edge id=":0_10" function="internal">
        <lane id=":0_10_0" index="0" speed="13.89" length="9.03" shape="258.00,536.40 258.35,538.85 259.40,540.60 261.15,541.65 263.60,542.00"/>
    </edge>
    <edge id=":0_11" function="internal">
        <lane id=":0_11_0" index="0" speed="13.89" length="27.20" shape="258.00,536.40 258.00,563.60"/>
        <lane id=":0_11_1" index="1" speed="13.89" length="27.20" shape="254.80,536.40 254.80,563.60"/>
        <lane id=":0_11_2" index="2" speed="13.89" length="27.20" shape="251.60,536.40 251.60,563.60"/>
    </edge>
    <edge id=":0_14" function="internal">
        <lane id=":0_14_0" index="0" speed="13.89" length="24.51" shape="251.60,536.40 250.65,543.05 247.80,547.80 243.05,550.65 236.40,551.60"/>
    </edge>
    <edge id=":0_15" function="internal">
        <lane id=":0_15_0" index="0" speed="13.89" length="9.03" shape="236.40,542.00 238.85,541.65 240.60,540.60 241.65,538.85 242.00,536.40"/>
    </edge>
    <edge id=":0_16" function="internal">
        <lane id=":0_16_0" index="0" speed="13.89" length="27.20" shape="236.40,542.00 263.60,542.00"/>
        <lane id=":0_16_1" index="1" speed="13.89" length="27.20" shape="236.40,545.20 263.60,545.20"/>
        <lane id=":0_16_2" index="2" speed="13.89" length="27.20" shape="236.40,548.40 263.60,548.40"/>
    </edge>
    <edge id=":0_19" function="internal">
        <lane id=":0_19_0" index="0" speed="13.89" length="24.51" shape="236.40,548.40 243.05,549.35 247.80,552.20 250.65,556.95 251.60,563.60"/>
    </edge>
    <edge id=":1_0" function="internal">
        <lane id=":1_0_0" index="0" speed="13.89" length="9.03" shape="392.00,563.60 391.65,561.15 390.60,559.40 388.85,558.35 386.40,558.00"/>
    </edge>
    <edge id=":1_1" function="internal">
        <lane id=":1_1_0" index="0" speed="13.89" length="27.20" shape="392.00,563.60 392.00,536.40"/>
        <lane id=":1_1_1" index="1" speed="13.89" length="27.20" shape="395.20,563.60 395.20,536.40"/>
        <lane id=":1_1_2" index="2" speed="13.89" length="27.20" shape="398.40,563.60 398.40,536.40"/>
    </edge>
    <edge id=":1_4" function="internal">
        <lane id=":1_4_0" index="0" speed="13.89" length="24.51" shape="398.40,563.60 399.35,556.95 402.20,552.20 406.95,549.35 413.60,548.40"/>
    </edge>
    <edge id=":1_5" function="internal">
        <lane id=":1_5_0" index="0" speed="13.89" length="9.03" shape="413.60,558.00 411.15,558.35 409.40,559.40 408.35,561.15 408.00,563.60"/>
    </edge>
    <edge id=":1_6" function="internal">
        <lane id=":1_6_0" index="0" speed="13.89" length="27.20" shape="413.60,558.00 386.40,558.00"/>
        <lane id=":1_6_1" index="1" speed="13.89" length="27.20" shape="413.60,554.80 386.40,554.80"/>
        <lane id=":1_6_2" index="2" speed="13.89" length="27.20" shape="413.60,551.60 386.40,551.60"/>
    </edge>
    <edge id=":1_9" function="internal">
        <lane id=":1_9_0" index="0" speed="13.89" length="24.51" shape="413.60,551.60 406.95,550.65 402.20,547.80 399.35,543.05 398.40,536.40"/>
    </edge>
    <edge id=":1_10" function="internal">
        <lane id=":1_10_0" index="0" speed="13.89" length="9.03" shape="408.00,536.40 408.35,538.85 409.40,540.60 411.15,541.65 413.60,542.00"/>
    </edge>
    <edge id=":1_11" function="internal">
        <lane id=":1_11_0" index="0" speed="13.89" length="27.20" shape="408.00,536.40 408.00,563.60"/>
        <lane id=":1_11_1" index="1" speed="13.89" length="27.20" shape="404.80,536.40 404.80,563.60"/>
        <lane id=":1_11_2" index="2" speed="13.89" length="27.20" shape="401.60,536.40 401.60,563.60"/>
    </edge>
    <edge id=":1_14" function="internal">
        <lane id=":1_14_0" index="0" speed="13.89" length="24.51" shape="401.60,536.40 400.65,543.05 397.80,547.80 393.05,550.65 386.40,551.60"/>
    </edge>
    <edge id=":1_15" function="internal">
        <lane id=":1_15_0" index="0" speed="13.89" length="9.03" shape="386.40,542.00 388.85,541.65 390.60,540.60 391.65,538.85 392.00,536.40"/>
    </edge>
    <edge id=":1_16" function="internal">
        <lane id=":1_16_0" index="0" speed="13.89" length="27.20" shape="386.40,542.00 413.60,542.00"/>
        <lane id=":1_16_1" index="1" speed="13.89" length="27.20" shape="386.40,545.20 413.60,545.20"/>
        <lane id=":1_16_2" index="2" speed="13.89" length="27.20" shape="386.40,548.40 413.60,548.40"/>
    </edge>
    <edge id=":1_19" function="internal">
        <lane id=":1_19_0" index="0" speed="13.89" length="24.51" shape="386.40,548.40 393.05,549.35 397.80,552.20 400.65,556.95 401.60,563.60"/>
    </edge>
    <edge id=":2_0" function="internal">
        <lane id=":2_0_0" index="0" speed="13.89" length="9.03" shape="542.00,563.60 541.65,561.15 540.60,559.40 538.85,558.35 536.40,558.00"/>
    </edge>
    <edge id=":2_1" function="internal">
        <lane id=":2_1_0" index="0" speed="13.89" length="27.20" shape="542.00,563.60 542.00,536.40"/>
        <lane id=":2_1_1" index="1" speed="13.89" length="27.20" shape="545.20,563.60 545.20,536.40"/>
        <lane id=":2_1_2" index="2" speed="13.89" length="27.20" shape="548.40,563.60 548.40,536.40"/>
    </edge>
    <edge id=":2_4" function="internal">
        <lane id=":2_4_0" index="0" speed="13.89" length="24.51" shape="548.40,563.60 549.35,556.95 552.20,552.20 556.95,549.35 563.60,548.40"/>
    </edge>
    <edge id=":2_5" function="internal">
        <lane id=":2_5_0" index="0" speed="13.89" length="9.03" shape="563.60,558.00 561.15,558.35 559.40,559.40 558.35,561.15 558.00,563.60"/>
    </edge>
    <edge id=":2_6" function="internal">
        <lane id=":2_6_0" index="0" speed="13.89" length="27.20" shape="563.60,558.00 536.40,558.00"/>
        <lane id=":2_6_1" index="1" speed="13.89" length="27.20" shape="563.60,554.80 536.40,554.80"/>
        <lane id=":2_6_2" index="2" speed="13.89" length="27.20" shape="563.60,551.60 536.40,551.60"/>
    </edge>
    <edge id=":2_9" function="internal">
        <lane id=":2_9_0" index="0" speed="13.89" length="24.51" shape="563.60,551.60 556.95,550.65 552.20,547.80 549.35,543.05 548.40,536.40"/>
    </edge>
    <edge id=":2_10" function="internal">
        <lane id=":2_10_0" index="0" speed="13.89" length="9.03" shape="558.00,536.40 558.35,538.85 559.40,540.60 561.15,541.65 563.60,542.00"/>
    </edge>
    <edge id=":2_11" function="internal">
        <lane id=":2_11_0" index="0" speed="13.89" length="27.20" shape="558.00,536.40 558.00,563.60"/>
        <lane id=":2_11_1" index="1" speed="13.89" length="27.20" shape="554.80,536.40 554.80,563.60"/>
        <lane id=":2_11_2" index="2" speed="13.89" length="27.20" shape="551.60,536.40 551.60,563.60"/>
    </edge>
    <edge id=":2_14" function="internal">
        <lane id=":2_14_0" index="0" speed="13.89" length="24.51" shape="551.60,536.40 550.65,543.05 547.80,547.80 543.05,550.65 536.40,551.60"/>
    </edge>
    <edge id=":2_15" function="internal">
        <lane id=":2_15_0" index="0" speed="13.89" length="9.03" shape="536.40,542.00 538.85,541.65 540.60,540.60 541.65,538.85 542.00,536.40"/>
    </edge>
    <edge id=":2_16" function="internal">
        <lane id=":2_16_0" index="0" speed="13.89" length="27.20" shape="536.40,542.00 563.60,542.00"/>
        <lane id=":2_16_1" index="1" speed="13.89" length="27.20" shape="536.40,545.20 563.60,545.20"/>
        <lane id=":2_16_2" index="2" speed="13.89" length="27.20" shape="536.40,548.40 563.60,548.40"/>
    </edge>
    <edge id=":2_19" function="internal">
        <lane id=":2_19_0" index="0" speed="13.89" length="24.51" shape="536.40,548.40 543.05,549.35 547.80,552.20 550.65,556.95 551.60,563.60"/>
    </edge>
    <edge id=":3_0" function="internal">
        <lane id=":3_0_0" index="0" speed="13.89" length="9.03" shape="242.00,413.60 241.65,411.15 240.60,409.40 238.85,408.35 236.40,408.00"/>
    </edge>
    <edge id=":3_1" function="internal">
        <lane id=":3_1_0" index="0" speed="13.89" length="27.20" shape="242.00,413.60 242.00,386.40"/>
        <lane id=":3_1_1" index="1" speed="13.89" length="27.20" shape="245.20,413.60 245.20,386.40"/>
        <lane id=":3_1_2" index="2" speed="13.89" length="27.20" shape="248.40,413.60 248.40,386.40"/>
    </edge>
    <edge id=":3_4" function="internal">
        <lane id=":3_4_0" index="0" speed="13.89" length="24.51" shape="248.40,413.60 249.35,406.95 252.20,402.20 256.95,399.35 263.60,398.40"/>
    </edge>
    <edge id=":3_5" function="internal">
        <lane id=":3_5_0" index="0" speed="13.89" length="9.03" shape="263.60,408.00 261.15,408.35 259.40,409.40 258.35,411.15 258.00,413.60"/>
    </edge>
    <edge id=":3_6" function="internal">
        <lane id=":3_6_0" index="0" speed="13.89" length="27.20" shape="263.60,408.00 236.40,408.00"/>
        <lane id=":3_6_1" index="1" speed="13.89" length="27.20" shape="263.60,404.80 236.40,404.80"/>
        <lane id=":3_6_2" index="2" speed="13.89" length="27.20" shape="263.60,401.60 236.40,401.60"/>
    </edge>
    <edge id=":3_9" function="internal">
        <lane id=":3_9_0" index="0" speed="13.89" length="24.51" shape="263.60,401.60 256.95,400.65 252.20,397.80 249.35,393.05 248.40,386.40"/>
    </edge>
    <edge id=":3_10" function="internal">
        <lane id=":3_10_0" index="0" speed="13.89" length="9.03" shape="258.00,386.40 258.35,388.85 259.40,390.60 261.15,391.65 263.60,392.00"/>
    </edge>
    <edge id=":3_11" function="internal">
        <lane id=":3_11_0" index="0" speed="13.89" length="27.20" shape="258.00,386.40 258.00,413.60"/>
        <lane id=":3_11_1" index="1" speed="13.89" length="27.20" shape="254.80,386.40 254.80,413.60"/>
        <lane id=":3_11_2" index="2" speed="13.89" length="27.20" shape="251.60,386.40 251.60,413.60"/>
    </edge>
    <edge id=":3_14" function="internal">
        <lane id=":3_14_0" index="0" speed="13.89" length="24.51" shape="251.60,386.40 250.65,393.05 247.80,397.80 243.05,400.65 236.40,401.60"/>
    </edge>
    <edge id=":3_15" function="internal">
        <lane id=":3_15_0" index="0" speed="13.89" length="9.03" shape="236.40,392.00 238.85,391.65 240.60,390.60 241.65,388.85 242.00,386.40"/>
    </edge>
    <edge id=":3_16" function="internal">
        <lane id=":3_16_0" index="0" speed="13.89" length="27.20" shape="236.40,392.00 263.60,392.00"/>
        <lane id=":3_16_1" index="1" speed="13.89" length="27.20" shape="236.40,395.20 263.60,395.20"/>
        <lane id=":3_16_2" index="2" speed="13.89" length="27.20" shape="236.40,398.40 263.60,398.40"/>
    </edge>
    <edge id=":3_19" function="internal">
        <lane id=":3_19_0" index="0" speed="13.89" length="24.51" shape="236.40,398.40 243.05,399.35 247.80,402.20 250.65,406.95 251.60,413.60"/>
    </edge>
    <edge id=":4_0" function="internal">
        <lane id=":4_0_0" index="0" speed="13.89" length="9.03" shape="392.00,413.60 391.65,411.15 390.60,409.40 388.85,408.35 386.40,408.00"/>
    </edge>
    <edge id=":4_1" function="internal">
        <lane id=":4_1_0" index="0" speed="13.89" length="27.20" shape="392.00,413.60 392.00,386.40"/>
        <lane id=":4_1_1" index="1" speed="13.89" length="27.20" shape="395.20,413.60 395.20,386.40"/>
        <lane id=":4_1_2" index="2" speed="13.89" length="27.20" shape="398.40,413.60 398.40,386.40"/>
    </edge>
    <edge id=":4_4" function="internal">
        <lane id=":4_4_0" index="0" speed="13.89" length="24.51" shape="398.40,413.60 399.35,406.95 402.20,402.20 406.95,399.35 413.60,398.40"/>
    </edge>
    <edge id=":4_5" function="internal">
        <lane id=":4_5_0" index="0" speed="13.89" length="9.03" shape="413.60,408.00 411.15,408.35 409.40,409.40 408.35,411.15 408.00,413.60"/>
    </edge>
    <edge id=":4_6" function="internal">
        <lane id=":4_6_0" index="0" speed="13.89" length="27.20" shape="413.60,408.00 386.40,408.00"/>
        <lane id=":4_6_1" index="1" speed="13.89" length="27.20" shape="413.60,404.80 386.40,404.80"/>
        <lane id=":4_6_2" index="2" speed="13.89" length="27.20" shape="413.60,401.60 386.40,401.60"/>
    </edge>
    <edge id=":4_9" function="internal">
        <lane id=":4_9_0" index="0" speed="13.89" length="24.51" shape="413.60,401.60 406.95,400.65 402.20,397.80 399.35,393.05 398.40,386.40"/>
    </edge>
    <edge id=":4_10" function="internal">
        <lane id=":4_10_0" index="0" speed="13.89" length="9.03" shape="408.00,386.40 408.35,388.85 409.40,390.60 411.15,391.65 413.60,392.00"/>
    </edge>
    <edge id=":4_11" function="internal">
        <lane id=":4_11_0" index="0" speed="13.89" length="27.20" shape="408.00,386.40 408.00,413.60"/>
        <lane id=":4_11_1" index="1" speed="13.89" length="27.20" shape="404.80,386.40 404.80,413.60"/>
        <lane id=":4_11_2" index="2" speed="13.89" length="27.20" shape="401.60,386.40 401.60,413.60"/>
    </edge>
    <edge id=":4_14" function="internal">
        <lane id=":4_14_0" index="0" speed="13.89" length="24.51" shape="401.60,386.40 400.65,393.05 397.80,397.80 393.05,400.65 386.40,401.60"/>
    </edge>
    <edge id=":4_15" function="internal">
        <lane id=":4_15_0" index="0" speed="13.89" length="9.03" shape="386.40,392.00 388.85,391.65 390.60,390.60 391.65,388.85 392.00,386.40"/>
    </edge>
    <edge id=":4_16" function="internal">
        <lane id=":4_16_0" index="0" speed="13.89" length="27.20" shape="386.40,392.00 413.60,392.00"/>
        <lane id=":4_16_1" index="1" speed="13.89" length="27.20" shape="386.40,395.20 413.60,395.20"/>
        <lane id=":4_16_2" index="2" speed="13.89" length="27.20" shape="386.40,398.40 413.60,398.40"/>
    </edge>
    <edge id=":4_19" function="internal">
        <lane id=":4_19_0" index="0" speed="13.89" length="24.51" shape="386.40,398.40 393.05,399.35 397.80,402.20 400.65,406.95 401.60,413.60"/>
    </edge>
    <edge id=":5_0" function="internal">
        <lane id=":5_0_0" index="0" speed="13.89" length="9.03" shape="542.00,413.60 541.65,411.15 540.60,409.40 538.85,408.35 536.40,408.00"/>
    </edge>
    <edge id=":5_1" function="internal">
        <lane id=":5_1_0" index="0" speed="13.89" length="27.20" shape="542.00,413.60 542.00,386.40"/>
        <lane id=":5_1_1" index="1" speed="13.89" length="27.20" shape="545.20,413.60 545.20,386.40"/>
        <lane id=":5_1_2" index="2" speed="13.89" length="27.20" shape="548.40,413.60 548.40,386.40"/>
    </edge>
    <edge id=":5_4" function="internal">
        <lane id=":5_4_0" index="0" speed="13.89" length="24.51" shape="548.40,413.60 549.35,406.95 552.20,402.20 556.95,399.35 563.60,398.40"/>
    </edge>
    <edge id=":5_5" function="internal">
        <lane id=":5_5_0" index="0" speed="13.89" length="9.03" shape="563.60,408.00 561.15,408.35 559.40,409.40 558.35,411.15 558.00,413.60"/>
    </edge>
    <edge id=":5_6" function="internal">
        <lane id=":5_6_0" index="0" speed="13.89" length="27.20" shape="563.60,408.00 536.40,408.00"/>
        <lane id=":5_6_1" index="1" speed="13.89" length="27.20" shape="563.60,404.80 536.40,404.80"/>
        <lane id=":5_6_2" index="2" speed="13.89" length="27.20" shape="563.60,401.60 536.40,401.60"/>
    </edge>
    <edge id=":5_9" function="internal">
        <lane id=":5_9_0" index="0" speed="13.89" length="24.51" shape="563.60,401.60 556.95,400.65 552.20,397.80 549.35,393.05 548.40,386.40"/>
    </edge>
    <edge id=":5_10" function="internal">
        <lane id=":5_10_0" index="0" speed="13.89" length="9.03" shape="558.00,386.40 558.35,388.85 559.40,390.60 561.15,391.65 563.60,392.00"/>
    </edge>
    <edge id=":5_11" function="internal">
        <lane id=":5_11_0" index="0" speed="13.89" length="27.20" shape="558.00,386.40 558.00,413.60"/>
        <lane id=":5_11_1" index="1" speed="13.89" length="27.20" shape="554.80,386.40 554.80,413.60"/>
        <lane id=":5_11_2" index="2" speed="13.89" length="27.20" shape="551.60,386.40 551.60,413.60"/>
    </edge>
    <edge id=":5_14" function="internal">
        <lane id=":5_14_0" index="0" speed="13.89" length="24.51" shape="551.60,386.40 550.65,393.05 547.80,397.80 543.05,400.65 536.40,401.60"/>
    </edge>
    <edge id=":5_15" function="internal">
        <lane id=":5_15_0" index="0" speed="13.89" length="9.03" shape="536.40,392.00 538.85,391.65 540.60,390.60 541.65,388.85 542.00,386.40"/>
    </edge>
    <edge id=":5_16" function="internal">
        <lane id=":5_16_0" index="0" speed="13.89" length="27.20" shape="536.40,392.00 563.60,392.00"/>
        <lane id=":5_16_1" index="1" speed="13.89" length="27.20" shape="536.40,395.20 563.60,395.20"/>
        <lane id=":5_16_2" index="2" speed="13.89" length="27.20" shape="536.40,398.40 563.60,398.40"/>
    </edge>
    <edge id=":5_19" function="internal">
        <lane id=":5_19_0" index="0" speed="13.89" length="24.51" shape="536.40,398.40 543.05,399.35 547.80,402.20 550.65,406.95 551.60,413.60"/>
    </edge>
    <edge id=":6_0" function="internal">
        <lane id=":6_0_0" index="0" speed="13.89" length="9.03" shape="242.00,263.60 241.65,261.15 240.60,259.40 238.85,258.35 236.40,258.00"/>
    </edge>
    <edge id=":6_1" function="internal">
        <lane id=":6_1_0" index="0" speed="13.89" length="27.20" shape="242.00,263.60 242.00,236.40"/>
        <lane id=":6_1_1" index="1" speed="13.89" length="27.20" shape="245.20,263.60 245.20,236.40"/>
        <lane id=":6_1_2" index="2" speed="13.89" length="27.20" shape="248.40,263.60 248.40,236.40"/>
    </edge>
    <edge id=":6_4" function="internal">
        <lane id=":6_4_0" index="0" speed="13.89" length="24.51" shape="248.40,263.60 249.35,256.95 252.20,252.20 256.95,249.35 263.60,248.40"/>
    </edge>
    <edge id=":6_5" function="internal">
        <lane id=":6_5_0" index="0" speed="13.89" length="9.03" shape="263.60,258.00 261.15,258.35 259.40,259.40 258.35,261.15 258.00,263.60"/>
    </edge>
    <edge id=":6_6" function="internal">
        <lane id=":6_6_0" index="0" speed="13.89" length="27.20" shape="263.60,258.00 236.40,258.00"/>
        <lane id=":6_6_1" index="1" speed="13.89" length="27.20" shape="263.60,254.80 236.40,254.80"/>
        <lane id=":6_6_2" index="2" speed="13.89" length="27.20" shape="263.60,251.60 236.40,251.60"/>
    </edge>
    <edge id=":6_9" function="internal">
        <lane id=":6_9_0" index="0" speed="13.89" length="24.51" shape="263.60,251.60 256.95,250.65 252.20,247.80 249.35,243.05 248.40,236.40"/>
    </edge>
    <edge id=":6_10" function="internal">
        <lane id=":6_10_0" index="0" speed="13.89" length="9.03" shape="258.00,236.40 258.35,238.85 259.40,240.60 261.15,241.65 263.60,242.00"/>
    </edge>
    <edge id=":6_11" function="internal">
        <lane id=":6_11_0" index="0" speed="13.89" length="27.20" shape="258.00,236.40 258.00,263.60"/>
        <lane id=":6_11_1" index="1" speed="13.89" length="27.20" shape="254.80,236.40 254.80,263.60"/>
        <lane id=":6_11_2" index="2" speed="13.89" length="27.20" shape="251.60,236.40 251.60,263.60"/>
    </edge>
    <edge id=":6_14" function="internal">
        <lane id=":6_14_0" index="0" speed="13.89" length="24.51" shape="251.60,236.40 250.65,243.05 247.80,247.80 243.05,250.65 236.40,251.60"/>
    </edge>
    <edge id=":6_15" function="internal">
        <lane id=":6_15_0" index="0" speed="13.89" length="9.03" shape="236.40,242.00 238.85,241.65 240.60,240.60 241.65,238.85 242.00,236.40"/>
    </edge>
    <edge id=":6_16" function="internal">
        <lane id=":6_16_0" index="0" speed="13.89" length="27.20" shape="236.40,242.00 263.60,242.00"/>
        <lane id=":6_16_1" index="1" speed="13.89" length="27.20" shape="236.40,245.20 263.60,245.20"/>
        <lane id=":6_16_2" index="2" speed="13.89" length="27.20" shape="236.40,248.40 263.60,248.40"/>
    </edge>
    <edge id=":6_19" function="internal">
        <lane id=":6_19_0" index="0" speed="13.89" length="24.51" shape="236.40,248.40 243.05,249.35 247.80,252.20 250.65,256.95 251.60,263.60"/>
    </edge>
    <edge id=":7_0" function="internal">
        <lane id=":7_0_0" index="0" speed="13.89" length="9.03" shape="392.00,263.60 391.65,261.15 390.60,259.40 388.85,258.35 386.40,258.00"/>
    </edge>
    <edge id=":7_1" function="internal">
        <lane id=":7_1_0" index="0" speed="13.89" length="27.20" shape="392.00,263.60 392.00,236.40"/>
        <lane id=":7_1_1" index="1" speed="13.89" length="27.20" shape="395.20,263.60 395.20,236.40"/>
        <lane id=":7_1_2" index="2" speed="13.89" length="27.20" shape="398.40,263.60 398.40,236.40"/>
    </edge>
    <edge id=":7_4" function="internal">
        <lane id=":7_4_0" index="0" speed="13.89" length="24.51" shape="398.40,263.60 399.35,256.95 402.20,252.20 406.95,249.35 413.60,248.40"/>
    </edge>
    <edge id=":7_5" function="internal">
        <lane id=":7_5_0" index="0" speed="13.89" length="9.03" shape="413.60,258.00 411.15,258.35 409.40,259.40 408.35,261.15 408.00,263.60"/>
    </edge>
    <edge id=":7_6" function="internal">
        <lane id=":7_6_0" index="0" speed="13.89" length="27.20" shape="413.60,258.00 386.40,258.00"/>
        <lane id=":7_6_1" index="1" speed="13.89" length="27.20" shape="413.60,254.80 386.40,254.80"/>
        <lane id=":7_6_2" index="2" speed="13.89" length="27.20" shape="413.60,251.60 386.40,251.60"/>
    </edge>
    <edge id=":7_9" function="internal">
        <lane id=":7_9_0" index="0" speed="13.89" length="24.51" shape="413.60,251.60 406.95,250.65 402.20,247.80 399.35,243.05 398.40,236.40"/>
    </edge>
    <edge id=":7_10" function="internal">
        <lane id=":7_10_0" index="0" speed="13.89" length="9.03" shape="408.00,236.40 408.35,238.85 409.40,240.60 411.15,241.65 413.60,242.00"/>
    </edge>
    <edge id=":7_11" function="internal">
        <lane id=":7_11_0" index="0" speed="13.89" length="27.20" shape="408.00,236.40 408.00,263.60"/>
        <lane id=":7_11_1" index="1" speed="13.89" length="27.20" shape="404.80,236.40 404.80,263.60"/>
        <lane id=":7_11_2" index="2" speed="13.89" length="27.20" shape="401.60,236.40 401.60,263.60"/>
    </edge>
    <edge id=":7_14" function="internal">
        <lane id=":7_14_0" index="0" speed="13.89" length="24.51" shape="401.60,236.40 400.65,243.05 397.80,247.80 393.05,250.65 386.40,251.60"/>
    </edge>
    <edge id=":7_15" function="internal">
        <lane id=":7_15_0" index="0" speed="13.89" length="9.03" shape="386.40,242.00 388.85,241.65 390.60,240.60 391.65,238.85 392.00,236.40"/>
    </edge>
    <edge id=":7_16" function="internal">
        <lane id=":7_16_0" index="0" speed="13.89" length="27.20" shape="386.40,242.00 413.60,242.00"/>
        <lane id=":7_16_1" index="1" speed="13.89" length="27.20" shape="386.40,245.20 413.60,245.20"/>
        <lane id=":7_16_2" index="2" speed="13.89" length="27.20" shape="386.40,248.40 413.60,248.40"/>
    </edge>
    <edge id=":7_19" function="internal">
        <lane id=":7_19_0" index="0" speed="13.89" length="24.51" shape="386.40,248.40 393.05,249.35 397.80,252.20 400.65,256.95 401.60,263.60"/>
    </edge>
    <edge id=":8_0" function="internal">
        <lane id=":8_0_0" index="0" speed="13.89" length="9.03" shape="542.00,263.60 541.65,261.15 540.60,259.40 538.85,258.35 536.40,258.00"/>
    </edge>
    <edge id=":8_1" function="internal">
        <lane id=":8_1_0" index="0" speed="13.89" length="27.20" shape="542.00,263.60 542.00,236.40"/>
        <lane id=":8_1_1" index="1" speed="13.89" length="27.20" shape="545.20,263.60 545.20,236.40"/>
        <lane id=":8_1_2" index="2" speed="13.89" length="27.20" shape="548.40,263.60 548.40,236.40"/>
    </edge>
    <edge id=":8_4" function="internal">
        <lane id=":8_4_0" index="0" speed="13.89" length="24.51" shape="548.40,263.60 549.35,256.95 552.20,252.20 556.95,249.35 563.60,248.40"/>
    </edge>
    <edge id=":8_5" function="internal">
        <lane id=":8_5_0" index="0" speed="13.89" length="9.03" shape="563.60,258.00 561.15,258.35 559.40,259.40 558.35,261.15 558.00,263.60"/>
    </edge>
    <edge id=":8_6" function="internal">
        <lane id=":8_6_0" index="0" speed="13.89" length="27.20" shape="563.60,258.00 536.40,258.00"/>
        <lane id=":8_6_1" index="1" speed="13.89" length="27.20" shape="563.60,254.80 536.40,254.80"/>
        <lane id=":8_6_2" index="2" speed="13.89" length="27.20" shape="563.60,251.60 536.40,251.60"/>
    </edge>
    <edge id=":8_9" function="internal">
        <lane id=":8_9_0" index="0" speed="13.89" length="24.51" shape="563.60,251.60 556.95,250.65 552.20,247.80 549.35,243.05 548.40,236.40"/>
    </edge>
    <edge id=":8_10" function="internal">
        <lane id=":8_10_0" index="0" speed="13.89" length="9.03" shape="558.00,236.40 558.35,238.85 559.40,240.60 561.15,241.65 563.60,242.00"/>
    </edge>
    <edge id=":8_11" function="internal">
        <lane id=":8_11_0" index="0" speed="13.89" length="27.20" shape="558.00,236.40 558.00,263.60"/>
        <lane id=":8_11_1" index="1" speed="13.89" length="27.20" shape="554.80,236.40 554.80,263.60"/>
        <lane id=":8_11_2" index="2" speed="13.89" length="27.20" shape="551.60,236.40 551.60,263.60"/>
    </edge>
    <edge id=":8_14" function="internal">
        <lane id=":8_14_0" index="0" speed="13.89" length="24.51" shape="551.60,236.40 550.65,243.05 547.80,247.80 543.05,250.65 536.40,251.60"/>
    </edge>
    <edge id=":8_15" function="internal">
        <lane id=":8_15_0" index="0" speed="13.89" length="9.03" shape="536.40,242.00 538.85,241.65 540.60,240.60 541.65,238.85 542.00,236.40"/>
    </edge>
    <edge id=":8_16" function="internal">
        <lane id=":8_16_0" index="0" speed="13.89" length="27.20" shape="536.40,242.00 563.60,242.00"/>
        <lane id=":8_16_1" index="1" speed="13.89" length="27.20" shape="536.40,245.20 563.60,245.20"/>
        <lane id=":8_16_2" index="2" speed="13.89" length="27.20" shape="536.40,248.40 563.60,248.40"/>
    </edge>
    <edge id=":8_19" function="internal">
        <lane id=":8_19_0" index="0" speed="13.89" length="24.51" shape="536.40,248.40 543.05,249.35 547.80,252.20 550.65,256.95 551.60,263.60"/>
    </edge>

    <edge id="0Ei" from="1" to="0" priority="3">
        <lane id="0Ei_0" index="0" speed="13.89" length="122.80" shape="386.40,558.00 263.60,558.00"/>
        <lane id="0Ei_1" index="1" speed="13.89" length="122.80" shape="386.40,554.80 263.60,554.80"/>
        <lane id="0Ei_2" index="2" speed="13.89" length="122.80" shape="386.40,551.60 263.60,551.60"/>
    </edge>
    <edge id="0Ni" from="15" to="0" priority="3">
        <lane id="0Ni_0" index="0" speed="13.89" length="236.40" shape="242.00,800.00 242.00,563.60"/>
        <lane id="0Ni_1" index="1" speed="13.89" length="236.40" shape="245.20,800.00 245.20,563.60"/>
        <lane id="0Ni_2" index="2" speed="13.89" length="236.40" shape="248.40,800.00 248.40,563.60"/>
    </edge>
    <edge id="0No" from="0" to="15" priority="3">